Version 4
SHEET 1 2168 1316
WIRE -624 -272 -672 -272
WIRE -496 -272 -544 -272
WIRE -272 -272 -496 -272
WIRE -128 -272 -272 -272
WIRE -672 -256 -672 -272
WIRE -128 -224 -128 -272
WIRE -272 -208 -272 -272
WIRE 2080 -192 768 -192
WIRE 272 -144 192 -144
WIRE 480 -144 352 -144
WIRE -672 -112 -672 -176
WIRE -496 -64 -496 -272
WIRE -272 -64 -272 -128
WIRE 0 -64 -272 -64
WIRE 192 -64 192 -144
WIRE 192 -64 64 -64
WIRE 480 -16 480 -144
WIRE 432 0 368 0
WIRE -128 16 -128 -144
WIRE 32 16 -128 16
WIRE 672 32 544 32
WIRE 192 64 192 -64
WIRE 672 64 672 32
WIRE 960 64 672 64
WIRE -304 112 -352 112
WIRE -192 112 -224 112
WIRE 960 112 960 64
WIRE -272 144 -272 -64
WIRE -128 144 -128 16
WIRE 1248 144 1072 144
WIRE 2080 176 2080 -192
WIRE -496 192 -496 16
WIRE -352 192 -352 112
WIRE -352 192 -496 192
WIRE -320 192 -352 192
WIRE -192 192 -192 112
WIRE -176 192 -192 192
WIRE -32 192 -176 192
WIRE 496 192 496 80
WIRE 880 192 496 192
WIRE 960 192 880 192
WIRE 192 208 192 144
WIRE 192 208 112 208
WIRE 240 208 192 208
WIRE 368 208 368 0
WIRE 368 208 320 208
WIRE -496 224 -496 192
WIRE -32 224 -32 192
WIRE 1136 224 1072 224
WIRE -352 240 -352 192
WIRE -656 272 -1216 272
WIRE -544 272 -656 272
WIRE 192 272 192 208
WIRE 240 272 192 272
WIRE 368 272 368 208
WIRE 368 272 304 272
WIRE 768 272 768 -192
WIRE 960 272 768 272
WIRE 192 288 192 272
WIRE 1296 304 1072 304
WIRE 1376 304 1296 304
WIRE -352 352 -352 304
WIRE -304 352 -304 240
WIRE -304 352 -352 352
WIRE -160 352 -160 240
WIRE -160 352 -304 352
WIRE 880 352 496 352
WIRE 960 352 880 352
WIRE 2080 352 2080 256
WIRE -160 368 -160 352
WIRE 496 368 496 352
WIRE 1296 368 1296 304
WIRE -656 384 -656 272
WIRE -1216 400 -1216 272
WIRE -528 400 -528 320
WIRE 624 416 544 416
WIRE 32 432 32 16
WIRE 48 432 32 432
WIRE 192 432 192 368
WIRE 192 432 112 432
WIRE 368 448 368 272
WIRE 432 448 368 448
WIRE -160 464 -160 448
WIRE -160 464 -176 464
WIRE -32 464 -32 288
WIRE -32 464 -160 464
WIRE 624 480 624 416
WIRE 960 480 960 432
WIRE 960 480 624 480
WIRE 1072 480 1072 384
WIRE 1296 480 1296 448
WIRE 1296 480 1072 480
WIRE 1376 480 1296 480
WIRE -160 496 -160 464
WIRE 1072 512 1072 480
WIRE -528 528 -528 480
WIRE 192 560 192 432
WIRE 272 560 192 560
WIRE 480 560 480 464
WIRE 480 560 352 560
WIRE -1216 672 -1216 480
WIRE -656 672 -656 464
WIRE -656 672 -1216 672
WIRE -528 672 -528 608
WIRE -528 672 -656 672
WIRE -160 672 -160 576
WIRE -160 672 -528 672
WIRE 784 672 -160 672
WIRE 2080 672 2080 432
WIRE 2080 672 784 672
WIRE 784 704 784 672
WIRE -32 768 -32 464
WIRE -32 768 -432 768
WIRE 512 768 -32 768
WIRE 1376 768 1376 480
WIRE 1376 768 592 768
FLAG 784 704 0
FLAG -672 -112 0
FLAG 112 208 0
FLAG 1376 304 0
FLAG 880 192 40%Tab1
FLAG 880 352 40%Tab2
FLAG -192 -16 0
SYMBOL voltage 2080 336 R0
WINDOW 0 38 66 Left 2
WINDOW 123 0 0 Left 2
WINDOW 39 24 132 Left 2
SYMATTR InstName VHT
SYMATTR Value 300V
SYMBOL res 208 272 M0
WINDOW 0 -300 -1075 Left 2
SYMATTR InstName R3
SYMATTR Value 220k
SYMBOL res 208 48 M0
WINDOW 0 -366 -760 Left 2
SYMATTR InstName R4
SYMATTR Value 220k
SYMBOL res -144 -240 R0
WINDOW 0 429 -227 Left 2
SYMATTR InstName R7
SYMATTR Value 24k
SYMBOL cap 48 448 R270
WINDOW 0 32 32 VTop 2
WINDOW 3 0 32 VBottom 2
SYMATTR InstName C3
SYMATTR Value 47n
SYMBOL cap 0 -48 R270
WINDOW 0 624 852 VTop 2
WINDOW 3 -4 32 VBottom 2
SYMATTR InstName C4
SYMATTR Value 47n
SYMBOL res -512 -80 R0
WINDOW 0 684 -440 Left 2
SYMATTR InstName R10
SYMATTR Value 68k
SYMBOL res -544 512 R0
WINDOW 0 1038 -938 Left 2
SYMATTR InstName R12
SYMATTR Value 100
SYMBOL res -672 368 R0
WINDOW 0 1078 -945 Left 2
SYMATTR InstName R13
SYMATTR Value 1Meg
SYMBOL voltage -1216 384 R0
WINDOW 39 24 132 Left 2
WINDOW 3 19 103 Left 2
WINDOW 123 24 44 Left 2
SYMATTR Value SINE(0 0.01 1k)
SYMATTR Value2 AC 0.6V
SYMATTR InstName V1
SYMBOL voltage -672 -272 R0
WINDOW 0 879 -636 Left 2
WINDOW 123 0 0 Left 2
WINDOW 39 24 132 Left 2
SYMATTR InstName VHT1
SYMATTR Value 280v
SYMBOL res 368 544 R90
WINDOW 0 0 56 VBottom 2
WINDOW 3 32 56 VTop 2
SYMATTR InstName R11
SYMATTR Value 1k
SYMBOL res 368 -160 R90
WINDOW 0 -407 2 VBottom 2
WINDOW 3 32 56 VTop 2
SYMATTR InstName R15
SYMATTR Value 1k
SYMBOL triode -496 272 R0
WINDOW 0 338 -1155 Left 2
WINDOW 38 56 33 Left 2
SYMATTR InstName V1a
SYMATTR SpiceModel e88cc
SYMATTR Value ""
SYMBOL triode -128 192 R0
WINDOW 0 -80 -880 Left 2
WINDOW 38 27 73 Left 2
SYMATTR InstName V1b
SYMATTR SpiceModel 6n1p
SYMATTR Value ""
SYMBOL res -176 480 R0
WINDOW 0 428 -1254 Left 2
SYMATTR InstName R5
SYMATTR Value 1k
SYMBOL res 336 192 R90
WINDOW 0 -774 121 VBottom 2
WINDOW 3 32 56 VTop 2
SYMATTR InstName R2
SYMATTR Value 180
SYMBOL cap 304 256 R90
WINDOW 0 -996 -419 VBottom 2
WINDOW 3 32 32 VTop 2
SYMATTR InstName C1
SYMATTR Value 220µ
SYMBOL res -544 384 R0
SYMATTR InstName R6
SYMATTR Value 370
SYMBOL res 608 752 R90
WINDOW 0 0 56 VBottom 2
WINDOW 3 32 56 VTop 2
SYMATTR InstName R8
SYMATTR Value 10k
SYMBOL ind2 944 256 R0
WINDOW 0 -30 42 Left 2
WINDOW 3 -47 80 Left 2
SYMATTR InstName L4
SYMATTR Value 2.85
SYMATTR Type ind
SYMATTR SpiceLine Ipk=.135 Rser=10 Rpar=40k Cpar=100p
SYMBOL ind2 1088 400 R180
WINDOW 0 36 80 Left 2
WINDOW 3 36 40 Left 2
SYMATTR InstName L5
SYMATTR Value 0.036
SYMATTR Type ind
SYMBOL res 1280 352 R0
SYMATTR InstName R9
SYMATTR Value 4
SYMBOL ind2 1088 320 R180
WINDOW 0 -39 82 Left 2
WINDOW 3 -56 43 Left 2
SYMATTR InstName L6
SYMATTR Value 0.006
SYMATTR Type ind
SYMBOL ind2 1088 240 R180
WINDOW 0 -42 76 Left 2
WINDOW 3 -55 35 Left 2
SYMATTR InstName L7
SYMATTR Value 0.012
SYMATTR Type ind
SYMBOL ind2 944 176 R0
WINDOW 0 -38 29 Left 2
WINDOW 3 -54 82 Left 2
SYMATTR InstName L8
SYMATTR Value 2.85
SYMATTR Type ind
SYMATTR SpiceLine Ipk=.135 Rser=10 Rpar=40k Cpar=100p
SYMBOL ind2 944 336 R0
WINDOW 0 -40 34 Left 2
WINDOW 3 -46 81 Left 2
SYMATTR InstName L9
SYMATTR Value 6.15
SYMATTR Type ind
SYMATTR SpiceLine Ipk=.135 Rser=15 Rpar=60k Cpar=100p
SYMBOL ind2 944 96 R0
WINDOW 0 -40 36 Left 2
WINDOW 3 -56 74 Left 2
SYMATTR InstName L10
SYMATTR Value 6.15
SYMATTR Type ind
SYMATTR SpiceLine Ipk=.135 Rser=15 Rpar=60k Cpar=100p
SYMBOL Misc\\tetrode 496 32 R90
SYMATTR InstName U1
SYMATTR Value 6bq5
SYMBOL Misc\\tetrode 496 416 M270
SYMATTR InstName U2
SYMATTR Value 6bq5
SYMBOL res 2064 160 R0
SYMATTR InstName R1
SYMATTR Value 80
SYMBOL res -528 -288 R90
WINDOW 0 0 56 VBottom 2
WINDOW 3 32 56 VTop 2
SYMATTR InstName R14
SYMATTR Value 80
SYMBOL triode -272 192 R0
WINDOW 0 -80 -880 Left 2
WINDOW 38 27 73 Left 2
SYMATTR InstName V2
SYMATTR SpiceModel 6n1p
SYMATTR Value ""
SYMBOL cap -48 224 R0
SYMATTR InstName C5
SYMATTR Value 100n
SYMBOL res -288 -224 R0
SYMATTR InstName R16
SYMATTR Value 22k
SYMBOL res -208 96 R90
WINDOW 0 0 56 VBottom 2
WINDOW 3 32 56 VTop 2
SYMATTR InstName R17
SYMATTR Value 1000k
SYMBOL res -176 352 R0
SYMATTR InstName R18
SYMATTR Value 10k
SYMBOL diode -368 240 R0
SYMATTR InstName D1
SYMATTR Value 1N914
TEXT -312 640 Left 0 !.tran 0 100ms 90ms
TEXT 144 832 Left 2 !.inc Tube_IM.lib
TEXT 136 872 Left 2 !.inc Koren_Tubes.inc
TEXT 144 800 Left 2 !.inc Tube_IMe.lib
TEXT 1016 512 VLeft 2 !K3 L10 L8 L4 L9 L5 L6 L7 0.9999
TEXT 896 496 Left 2 ;Anode
TEXT 896 48 Left 2 ;Anode
TEXT -416 600 Left 2 ;.ac oct 100 1hz 200khz
LINE Normal 992 512 992 32 2
LINE Normal 1040 512 1040 32 2
